<?xml version="1.0" encoding="UTF-8"?>

<routes xmlns:xsi="http://www.w3.org/2001/XMLSchema-instance"
        xsi:noNamespaceSchemaLocation="http://sumo.dlr.de/xsd/routes_file.xsd">

  <!-- Vehicle Types (optional if you're dynamically defining them, otherwise add here) -->
  
  <vType id="private" accel="2.6" decel="4.5" sigma="0.5" length="5" maxSpeed="13.9"/>
  <vType id="taxi" accel="2.6" decel="4.5" sigma="0.5" length="5" maxSpeed="12.0"/>
  <vType id="bus" accel="2.6" decel="4.5" sigma="0.5" length="12" maxSpeed="10.0"/>
 

  <!-- Route used by all vehicles -->
  <route id="route0" edges="1.0.00"/>

</routes>
