<?xml version="1.0" encoding="UTF-8"?>

<!-- generated on Sun Jul  6 10:56:12 2025 by Eclipse SUMO netconvert Version 1.4.0
<configuration xmlns:xsi="http://www.w3.org/2001/XMLSchema-instance" xsi:noNamespaceSchemaLocation="http://sumo.dlr.de/xsd/netconvertConfiguration.xsd">

    <input>
        <sumo-net-file value="xodr_sumo_carla_pipeline/demo_scene.net.xml"/>
    </input>

    <output>
        <plain-output-prefix value="debug"/>
    </output>

    <processing>
        <geometry.min-radius.fix.railways value="false"/>
        <geometry.max-grade.fix value="false"/>
        <offset.disable-normalization value="true"/>
        <lefthand value="false"/>
    </processing>

    <junctions>
        <no-turnarounds value="true"/>
        <junctions.corner-detail value="5"/>
        <junctions.limit-turn-speed value="5.5"/>
        <rectangular-lane-cut value="true"/>
    </junctions>

    <pedestrian>
        <walkingareas value="false"/>
    </pedestrian>

    <report>
        <aggregate-warnings value="5"/>
    </report>

</configuration>
-->

<edges version="1.3" xmlns:xsi="http://www.w3.org/2001/XMLSchema-instance" xsi:noNamespaceSchemaLocation="http://sumo.dlr.de/xsd/edges_file.xsd">
    <edge id="-1.0.00" from="1.begin" to="1.end" priority="1" type="driving" numLanes="1" speed="13.89" width="3.50" disallow="pedestrian tram rail_urban rail rail_electric rail_fast ship"/>
    <edge id="1.0.00" from="1.end" to="1.begin" priority="1" type="driving" numLanes="1" speed="13.89" width="3.50" disallow="pedestrian tram rail_urban rail rail_electric rail_fast ship"/>
</edges>
