<routes>
    <vType id="car" accel="1.0" decel="4.5" maxSpeed="13.9" length="5"/>
    <route id="r0" edges="e0"/>
    <vehicle id="veh0" type="car" route="r0" depart="0"/>
</routes>
