<?xml version="1.0" encoding="UTF-8"?>

<!-- generated on Sun Jul  6 04:37:56 2025 by Eclipse SUMO netconvert Version 1.4.0
<configuration xmlns:xsi="http://www.w3.org/2001/XMLSchema-instance" xsi:noNamespaceSchemaLocation="http://sumo.dlr.de/xsd/netconvertConfiguration.xsd">

    <input>
        <opendrive-files value="demo_scene.xodr"/>
    </input>

    <output>
        <output-file value="demo_scene.net.xml"/>
    </output>

    <processing>
        <geometry.max-grade.fix value="false"/>
    </processing>

    <building_defaults>
        <default.lanewidth value="3.5"/>
    </building_defaults>

    <tls_building>
        <tls.guess value="true"/>
        <tls.left-green.time value="0"/>
    </tls_building>

    <junctions>
        <rectangular-lane-cut value="true"/>
    </junctions>

    <report>
        <no-warnings value="true"/>
        <aggregate-warnings value="5"/>
    </report>

</configuration>
-->

<net version="1.3" junctionCornerDetail="5" rectangularLaneCut="true" limitTurnSpeed="5.50" xmlns:xsi="http://www.w3.org/2001/XMLSchema-instance" xsi:noNamespaceSchemaLocation="http://sumo.dlr.de/xsd/net_file.xsd">

    <location netOffset="0.00,0.00" convBoundary="0.00,0.00,50.00,0.00" origBoundary="0.00,0.00,50.00,0.00" projParameter="!"/>

    <type id="bidirectional" priority="1" speed="1.39" disallow="pedestrian tram rail_urban rail rail_electric rail_fast ship" width="3.65"/>
    <type id="border" priority="0" speed="1.39" disallow="all" discard="1" width="0.10"/>
    <type id="driving" priority="1" speed="13.89" disallow="pedestrian tram rail_urban rail rail_electric rail_fast ship" width="3.65"/>
    <type id="entry" priority="1" speed="22.22" disallow="pedestrian tram rail_urban rail rail_electric rail_fast ship" width="3.65"/>
    <type id="exit" priority="1" speed="22.22" disallow="pedestrian tram rail_urban rail rail_electric rail_fast ship" width="3.65"/>
    <type id="median" priority="0" speed="1.39" disallow="all" discard="1" width="0.10"/>
    <type id="mwyEntry" priority="1" speed="22.22" allow="private emergency authority army vip passenger hov taxi bus coach delivery truck trailer motorcycle evehicle custom1 custom2" width="3.65"/>
    <type id="mwyExit" priority="1" speed="22.22" allow="private emergency authority army vip passenger hov taxi bus coach delivery truck trailer motorcycle evehicle custom1 custom2" width="3.65"/>
    <type id="none" priority="0" speed="1.39" disallow="all" discard="1" width="1.00"/>
    <type id="offRamp" priority="1" speed="22.22" allow="private emergency authority army vip passenger hov taxi bus coach delivery truck trailer motorcycle evehicle custom1 custom2" width="3.65"/>
    <type id="onRamp" priority="1" speed="22.22" allow="private emergency authority army vip passenger hov taxi bus coach delivery truck trailer motorcycle evehicle custom1 custom2" width="3.65"/>
    <type id="parking" priority="1" speed="1.39" disallow="pedestrian tram rail_urban rail rail_electric rail_fast ship" width="2.50"/>
    <type id="rail" priority="3" speed="33.33" allow="rail_urban rail rail_electric rail_fast" width="3.65"/>
    <type id="restricted" priority="0" speed="13.89" disallow="all" width="3.65"/>
    <type id="roadWorks" priority="0" speed="1.39" allow="authority" width="3.65"/>
    <type id="shoulder" priority="0" speed="1.39" disallow="all" discard="1" width="1.00"/>
    <type id="special1" priority="1" speed="22.22" allow="custom1" discard="1" width="3.65"/>
    <type id="special2" priority="1" speed="22.22" allow="custom2" discard="1" width="3.65"/>
    <type id="special3" priority="1" speed="22.22" allow="custom1 custom2" discard="1" width="3.65"/>
    <type id="stop" priority="1" speed="13.89" disallow="pedestrian tram rail_urban rail rail_electric rail_fast ship" width="3.65"/>
    <type id="tram" priority="2" speed="13.89" allow="tram" width="3.65"/>

    <edge id=":1.begin_0" function="internal">
        <lane id=":1.begin_0_0" index="0" disallow="pedestrian tram rail_urban rail rail_electric rail_fast ship" speed="3.82" length="5.11" width="3.50" shape="0.00,1.75 -1.31,0.88 -1.75,0.00 -1.31,-0.88 0.00,-1.75"/>
    </edge>
    <edge id=":1.end_0" function="internal">
        <lane id=":1.end_0_0" index="0" disallow="pedestrian tram rail_urban rail rail_electric rail_fast ship" speed="3.82" length="5.11" width="3.50" shape="50.00,-1.75 51.31,-0.88 51.75,0.00 51.31,0.88 50.00,1.75"/>
    </edge>

    <edge id="-1.0.00" from="1.begin" to="1.end" priority="1" type="driving">
        <lane id="-1.0.00_0" index="0" disallow="pedestrian tram rail_urban rail rail_electric rail_fast ship" speed="13.89" length="50.00" width="3.50" shape="0.00,-1.75 50.00,-1.75" type="driving"/>
    </edge>
    <edge id="1.0.00" from="1.end" to="1.begin" priority="1" type="driving">
        <lane id="1.0.00_0" index="0" disallow="pedestrian tram rail_urban rail rail_electric rail_fast ship" speed="13.89" length="50.00" width="3.50" shape="50.00,1.75 0.00,1.75" type="driving"/>
    </edge>

    <junction id="1.begin" type="priority" x="0.00" y="0.00" incLanes="1.0.00_0" intLanes=":1.begin_0_0" shape="0.00,0.00 0.00,3.50 0.00,0.00">
        <request index="0" response="0" foes="0" cont="0"/>
    </junction>
    <junction id="1.end" type="priority" x="50.00" y="0.00" incLanes="-1.0.00_0" intLanes=":1.end_0_0" shape="50.00,0.00 50.00,-3.50 50.00,0.00">
        <request index="0" response="0" foes="0" cont="0"/>
    </junction>

    <connection from="-1.0.00" to="1.0.00" fromLane="0" toLane="0" via=":1.end_0_0" dir="t" state="M"/>
    <connection from="1.0.00" to="-1.0.00" fromLane="0" toLane="0" via=":1.begin_0_0" dir="t" state="M"/>

    <connection from=":1.begin_0" to="-1.0.00" fromLane="0" toLane="0" dir="t" state="M"/>
    <connection from=":1.end_0" to="1.0.00" fromLane="0" toLane="0" dir="t" state="M"/>

</net>
