<additional>
  <tlLogic id="TL0" type="static" programID="0" offset="0">
    <phase duration="30" state="Gr"/>
    <phase duration="5" state="yr"/>
    <phase duration="45" state="rG"/>
  </tlLogic>
</additional>
