<edges>
    <edge id="edge1" from="n1" to="n2"/>
</edges>
